
  EPA STORM WATER MANAGEMENT MODEL - VERSION 5.1 (Build 5.1.015)
  --------------------------------------------------------------

  
  *************
  Element Count
  *************
  Number of rain gages ...... 2
  Number of subcatchments ... 2
  Number of nodes ........... 10
  Number of links ........... 9
  Number of pollutants ...... 0
  Number of land uses ....... 0
  
  
  ****************
  Raingage Summary
  ****************
                                                      Data       Recording
  Name                 Data Source                    Type       Interval 
  ------------------------------------------------------------------------
  Hurricane_Hazel_(0-25) Hurricane_Hazel_(0-25)         INTENSITY   60 min.
  SCS_Type_I_10mm      SCS_Type_I_10mm                INTENSITY    6 min.
  
  
  ********************
  Subcatchment Summary
  ********************
  Name                       Area     Width   %Imperv    %Slope Rain Gage            Outlet              
  -----------------------------------------------------------------------------------------------------------
  S2                     36000.00  24000.00     25.00    0.5000 Hurricane_Hazel_(0-25) J1                  
  S5                     36000.00  21000.00     25.00    0.5000 Hurricane_Hazel_(0-25) J2                  
  
  
  ************
  Node Summary
  ************
                                           Invert      Max.    Ponded    External
  Name                 Type                 Elev.     Depth      Area    Inflow  
  -------------------------------------------------------------------------------
  J1                   JUNCTION             30.00     50.00       0.0
  J2                   JUNCTION             25.00     50.00       0.0
  J3                   JUNCTION              5.00     10.00       0.0
  J4                   JUNCTION              3.00     10.00       0.0
  SU                   JUNCTION              0.00     50.00       0.0
  SU1                  JUNCTION             20.00     50.00       0.0
  SU2                  JUNCTION             18.00     50.00       0.0
  OF1                  OUTFALL               0.00      0.00       0.0
  OF2                  OUTFALL               0.00      0.00       0.0
  OF3                  OUTFALL               0.00      0.00       0.0
  
  
  ************
  Link Summary
  ************
  Name             From Node        To Node          Type            Length    %Slope Roughness
  ---------------------------------------------------------------------------------------------
  C1               J1               SU1              CONDUIT         5000.0    0.2000    0.0200
  C2               J2               SU2              CONDUIT         2000.0    0.3500    0.0200
  C3               J3               J4               CONDUIT         6000.0    0.0333    0.0100
  C4               J4               SU               CONDUIT         6000.0    0.0500    0.0100
  CSO1             SU1              OF1              ORIFICE     
  CSO2             SU2              OF2              ORIFICE     
  OR1              SU1              J3               ORIFICE     
  OR2              SU2              J4               ORIFICE     
  OR3              SU               OF3              ORIFICE     
  
  
  *********************
  Cross Section Summary
  *********************
                                        Full     Full     Hyd.     Max.   No. of     Full
  Conduit          Shape               Depth     Area     Rad.    Width  Barrels     Flow
  ---------------------------------------------------------------------------------------
  C1               TRAPEZOIDAL         50.00  4150.00    22.04   158.00        1 72963.45
  C2               TRAPEZOIDAL         50.00  3950.00    21.44   154.00        1 90176.01
  C3               TRAPEZOIDAL         10.00   230.00     5.22    38.00        1  1263.93
  C4               TRAPEZOIDAL         10.00   230.00     5.22    38.00        1  1548.00
  
  
  
  *********************************************************
  NOTE: The summary statistics displayed in this report are
  based on results found at every computational time step,  
  not just on results from each reporting time step.
  *********************************************************
  
  ****************
  Analysis Options
  ****************
  Flow Units ............... CMS
  Process Models:
    Rainfall/Runoff ........ YES
    RDII ................... NO
    Snowmelt ............... NO
    Groundwater ............ NO
    Flow Routing ........... YES
    Ponding Allowed ........ NO
    Water Quality .......... NO
  Infiltration Method ...... HORTON
  Flow Routing Method ...... DYNWAVE
  Surcharge Method ......... EXTRAN
  Starting Date ............ 05/15/2023 00:00:00
  Ending Date .............. 05/15/2023 22:00:00
  Antecedent Dry Days ...... 0.0
  Report Time Step ......... 00:01:00
  Wet Time Step ............ 00:05:00
  Dry Time Step ............ 00:05:00
  Routing Time Step ........ 5.00 sec
  Variable Time Step ....... YES
  Maximum Trials ........... 8
  Number of Threads ........ 1
  Head Tolerance ........... 0.001500 m
  
  
  **************************        Volume         Depth
  Runoff Quantity Continuity     hectare-m            mm
  **************************     ---------       -------
  Total Precipitation ......     15192.000       211.000
  Evaporation Loss .........         0.000         0.000
  Infiltration Loss ........       627.742         8.719
  Surface Runoff ...........      9422.644       130.870
  Final Storage ............      5151.598        71.550
  Continuity Error (%) .....        -0.066
  
  
  **************************        Volume        Volume
  Flow Routing Continuity        hectare-m      10^6 ltr
  **************************     ---------     ---------
  Dry Weather Inflow .......         0.000         0.000
  Wet Weather Inflow .......      9412.744     94128.424
  Groundwater Inflow .......         0.000         0.000
  RDII Inflow ..............         0.000         0.000
  External Inflow ..........         0.000         0.000
  External Outflow .........      9194.017     91941.131
  Flooding Loss ............         0.000         0.000
  Evaporation Loss .........         0.000         0.000
  Exfiltration Loss ........         0.000         0.000
  Initial Stored Volume ....         0.000         0.004
  Final Stored Volume ......       222.717      2227.190
  Continuity Error (%) .....        -0.042
  
  
  *************************
  Highest Continuity Errors
  *************************
  Node J4 (1.57%)
  Node SU (1.34%)
  Node J3 (1.19%)
  Node SU1 (1.11%)
  
  
  ***************************
  Time-Step Critical Elements
  ***************************
  None
  
  
  ********************************
  Highest Flow Instability Indexes
  ********************************
  All links are stable.
  
  
  *************************
  Routing Time Step Summary
  *************************
  Minimum Time Step           :     3.50 sec
  Average Time Step           :     5.00 sec
  Maximum Time Step           :     5.00 sec
  Percent in Steady State     :     0.00
  Average Iterations per Step :     2.00
  Percent Not Converging      :     0.00
  Time Step Frequencies       :
      5.000 -  3.155 sec      :   100.00 %
      3.155 -  1.991 sec      :     0.00 %
      1.991 -  1.256 sec      :     0.00 %
      1.256 -  0.792 sec      :     0.00 %
      0.792 -  0.500 sec      :     0.00 %
  
  
  ***************************
  Subcatchment Runoff Summary
  ***************************
  
  ------------------------------------------------------------------------------------------------------------------------------
                            Total      Total      Total      Total     Imperv       Perv      Total       Total     Peak  Runoff
                           Precip      Runon       Evap      Infil     Runoff     Runoff     Runoff      Runoff   Runoff   Coeff
  Subcatchment                 mm         mm         mm         mm         mm         mm         mm    10^6 ltr      CMS
  ------------------------------------------------------------------------------------------------------------------------------
  S2                       211.00       0.00       0.00       8.72      52.15      81.57     133.71    48136.86  1810.72   0.634
  S5                       211.00       0.00       0.00       8.72      52.03      76.00     128.03    46090.13  1722.60   0.607
  
  
  ******************
  Node Depth Summary
  ******************
  
  ---------------------------------------------------------------------------------
                                 Average  Maximum  Maximum  Time of Max    Reported
                                   Depth    Depth      HGL   Occurrence   Max Depth
  Node                 Type       Meters   Meters   Meters  days hr:min      Meters
  ---------------------------------------------------------------------------------
  J1                   JUNCTION     5.89    10.69    40.69     0  11:01       10.69
  J2                   JUNCTION     7.65    16.82    41.82     0  11:02       16.82
  J3                   JUNCTION     4.09     5.57    10.57     0  11:27        5.57
  J4                   JUNCTION     5.27     7.06    10.06     0  11:35        7.06
  SU                   JUNCTION     7.09     9.72     9.72     0  11:41        9.72
  SU1                  JUNCTION    11.10    20.17    40.17     0  11:07       20.17
  SU2                  JUNCTION    13.67    24.03    42.03     0  11:04       24.03
  OF1                  OUTFALL      0.00     0.00     0.00     0  00:00        0.00
  OF2                  OUTFALL      0.00     0.00     0.00     0  00:00        0.00
  OF3                  OUTFALL      0.00     0.00     0.00     0  00:00        0.00
  
  
  *******************
  Node Inflow Summary
  *******************
  
  -------------------------------------------------------------------------------------------------
                                  Maximum  Maximum                  Lateral       Total        Flow
                                  Lateral    Total  Time of Max      Inflow      Inflow     Balance
                                   Inflow   Inflow   Occurrence      Volume      Volume       Error
  Node                 Type           CMS      CMS  days hr:min    10^6 ltr    10^6 ltr     Percent
  -------------------------------------------------------------------------------------------------
  J1                   JUNCTION  1810.720 1810.720     0  11:00    4.81e+04    4.81e+04       0.366
  J2                   JUNCTION  1722.599 1722.599     0  11:00     4.6e+04     4.6e+04       0.154
  J3                   JUNCTION     0.000  302.635     0  11:07           0    1.57e+04       1.202
  J4                   JUNCTION     0.000  630.902     0  11:05           0    3.34e+04       1.593
  SU                   JUNCTION     0.000  620.999     0  11:25           0    3.29e+04       1.358
  SU1                  JUNCTION     0.000 1796.053     0  11:01           0    4.79e+04       1.125
  SU2                  JUNCTION     0.000 1697.533     0  11:01           0     4.6e+04       0.561
  OF1                  OUTFALL      0.000 1459.352     0  11:07           0    3.17e+04       0.000
  OF2                  OUTFALL      0.000 1335.419     0  11:04           0    2.78e+04       0.000
  OF3                  OUTFALL      0.000  617.038     0  11:41           0    3.25e+04       0.000
  
  
  **********************
  Node Surcharge Summary
  **********************
  
  No nodes were surcharged.
  
  
  *********************
  Node Flooding Summary
  *********************
  
  No nodes were flooded.
  
  
  ***********************
  Outfall Loading Summary
  ***********************
  
  -----------------------------------------------------------
                         Flow       Avg       Max       Total
                         Freq      Flow      Flow      Volume
  Outfall Node           Pcnt       CMS       CMS    10^6 ltr
  -----------------------------------------------------------
  OF1                   81.83   488.817  1459.352   31678.801
  OF2                   80.98   433.301  1335.419   27788.586
  OF3                   97.51   420.542   617.038   32473.323
  -----------------------------------------------------------
  System                86.77  1342.661  3396.429   91940.710
  
  
  ********************
  Link Flow Summary
  ********************
  
  -----------------------------------------------------------------------------
                                 Maximum  Time of Max   Maximum    Max/    Max/
                                  |Flow|   Occurrence   |Veloc|    Full    Full
  Link                 Type          CMS  days hr:min     m/sec    Flow   Depth
  -----------------------------------------------------------------------------
  C1                   CONDUIT  1796.053     0  11:01      3.92    0.02    0.31
  C2                   CONDUIT  1697.533     0  11:01      3.07    0.02    0.41
  C3                   CONDUIT   298.184     0  11:20      2.82    0.24    0.63
  C4                   CONDUIT   620.999     0  11:25      3.89    0.40    0.84
  CSO1                 ORIFICE  1459.352     0  11:07                      0.88
  CSO2                 ORIFICE  1335.419     0  11:04                      1.00
  OR1                  ORIFICE   302.635     0  11:07                      1.00
  OR2                  ORIFICE   334.077     0  11:04                      1.00
  OR3                  ORIFICE   617.038     0  11:41                      0.97
  
  
  ***************************
  Flow Classification Summary
  ***************************
  
  -------------------------------------------------------------------------------------
                      Adjusted    ---------- Fraction of Time in Flow Class ---------- 
                       /Actual         Up    Down  Sub   Sup   Up    Down  Norm  Inlet 
  Conduit               Length    Dry  Dry   Dry   Crit  Crit  Crit  Crit  Ltd   Ctrl  
  -------------------------------------------------------------------------------------
  C1                      1.00   0.00  0.00  0.00  0.99  0.01  0.00  0.00  0.94  0.00
  C2                      1.00   0.00  0.00  0.00  0.98  0.02  0.00  0.00  0.17  0.00
  C3                      1.00   0.00  0.02  0.00  0.98  0.00  0.00  0.00  0.17  0.00
  C4                      1.00   0.00  0.00  0.00  0.99  0.01  0.00  0.00  0.06  0.00
  
  
  *************************
  Conduit Surcharge Summary
  *************************
  
  No conduits were surcharged.
  

  Analysis begun on:  Thu Apr 25 16:41:27 2024
  Analysis ended on:  Thu Apr 25 16:41:27 2024
  Total elapsed time: < 1 sec