
  EPA STORM WATER MANAGEMENT MODEL - VERSION 5.1 (Build 5.1.015)
  --------------------------------------------------------------

  
  *************
  Element Count
  *************
  Number of rain gages ...... 3
  Number of subcatchments ... 3
  Number of nodes ........... 5
  Number of links ........... 4
  Number of pollutants ...... 0
  Number of land uses ....... 0
  
  
  ****************
  Raingage Summary
  ****************
                                                      Data       Recording
  Name                 Data Source                    Type       Interval 
  ------------------------------------------------------------------------
  Huff_(50-400_sq._mi.)_First_quartile_6mm Huff_(50-400_sq._mi.)_First_quartile_6mm INTENSITY    5 min.
  Hurricane_Hazel_(0-25) Hurricane_Hazel_(0-25)         INTENSITY   60 min.
  SCS_Type_I_10mm      SCS_Type_I_10mm                INTENSITY    6 min.
  
  
  ********************
  Subcatchment Summary
  ********************
  Name                       Area     Width   %Imperv    %Slope Rain Gage            Outlet              
  -----------------------------------------------------------------------------------------------------------
  S1                       800.00   2000.00     25.00    0.5000 Huff_(50-400_sq._mi.)_First_quartile_6mm J1                  
  S2                       700.00   1166.67     25.00    0.5000 Huff_(50-400_sq._mi.)_First_quartile_6mm J2                  
  S3                       300.00   1000.00     25.00    0.5000 Huff_(50-400_sq._mi.)_First_quartile_6mm J3                  
  
  
  ************
  Node Summary
  ************
                                           Invert      Max.    Ponded    External
  Name                 Type                 Elev.     Depth      Area    Inflow  
  -------------------------------------------------------------------------------
  J1                   JUNCTION             10.80      1.00       0.0
  J2                   JUNCTION              6.00      1.50       0.0
  J3                   JUNCTION              2.00      2.00       0.0
  SU                   JUNCTION              0.00      2.00       0.0
  OF1                  OUTFALL               0.00      0.00       0.0
  
  
  ************
  Link Summary
  ************
  Name             From Node        To Node          Type            Length    %Slope Roughness
  ---------------------------------------------------------------------------------------------
  C1               J1               J2               CONDUIT          300.0    1.6002    0.0130
  C2               J2               J3               CONDUIT          500.0    0.8000    0.0130
  C3               J3               SU               CONDUIT          800.0    0.2500    0.0130
  OR               SU               OF1              ORIFICE     
  
  
  *********************
  Cross Section Summary
  *********************
                                        Full     Full     Hyd.     Max.   No. of     Full
  Conduit          Shape               Depth     Area     Rad.    Width  Barrels     Flow
  ---------------------------------------------------------------------------------------
  C1               CIRCULAR             1.00     0.79     0.25     1.00        1     3.03
  C2               CIRCULAR             1.50     1.77     0.38     1.50        1     6.32
  C3               CIRCULAR             2.00     3.14     0.50     2.00        1     7.61
  
  
  
  *********************************************************
  NOTE: The summary statistics displayed in this report are
  based on results found at every computational time step,  
  not just on results from each reporting time step.
  *********************************************************
  
  ****************
  Analysis Options
  ****************
  Flow Units ............... CMS
  Process Models:
    Rainfall/Runoff ........ YES
    RDII ................... NO
    Snowmelt ............... NO
    Groundwater ............ NO
    Flow Routing ........... YES
    Ponding Allowed ........ NO
    Water Quality .......... NO
  Infiltration Method ...... HORTON
  Flow Routing Method ...... DYNWAVE
  Surcharge Method ......... EXTRAN
  Starting Date ............ 05/15/2023 00:00:00
  Ending Date .............. 05/16/2023 23:50:00
  Antecedent Dry Days ...... 0.0
  Report Time Step ......... 00:01:00
  Wet Time Step ............ 00:05:00
  Dry Time Step ............ 00:05:00
  Routing Time Step ........ 5.00 sec
  Variable Time Step ....... YES
  Maximum Trials ........... 8
  Number of Threads ........ 1
  Head Tolerance ........... 0.001500 m
  
  
  **************************        Volume         Depth
  Runoff Quantity Continuity     hectare-m            mm
  **************************     ---------       -------
  Total Precipitation ......        10.800         6.000
  Evaporation Loss .........         0.000         0.000
  Infiltration Loss ........         8.070         4.484
  Surface Runoff ...........         2.674         1.486
  Final Storage ............         0.056         0.031
  Continuity Error (%) .....        -0.001
  
  
  **************************        Volume        Volume
  Flow Routing Continuity        hectare-m      10^6 ltr
  **************************     ---------     ---------
  Dry Weather Inflow .......         0.000         0.000
  Wet Weather Inflow .......         2.674        26.742
  Groundwater Inflow .......         0.000         0.000
  RDII Inflow ..............         0.000         0.000
  External Inflow ..........         0.000         0.000
  External Outflow .........         2.673        26.727
  Flooding Loss ............         0.000         0.000
  Evaporation Loss .........         0.000         0.000
  Exfiltration Loss ........         0.000         0.000
  Initial Stored Volume ....         0.000         0.000
  Final Stored Volume ......         0.002         0.018
  Continuity Error (%) .....        -0.010
  
  
  ***************************
  Time-Step Critical Elements
  ***************************
  None
  
  
  ********************************
  Highest Flow Instability Indexes
  ********************************
  All links are stable.
  
  
  *************************
  Routing Time Step Summary
  *************************
  Minimum Time Step           :     3.50 sec
  Average Time Step           :     5.00 sec
  Maximum Time Step           :     5.00 sec
  Percent in Steady State     :     0.00
  Average Iterations per Step :     2.00
  Percent Not Converging      :     0.00
  Time Step Frequencies       :
      5.000 -  3.155 sec      :   100.00 %
      3.155 -  1.991 sec      :     0.00 %
      1.991 -  1.256 sec      :     0.00 %
      1.256 -  0.792 sec      :     0.00 %
      0.792 -  0.500 sec      :     0.00 %
  
  
  ***************************
  Subcatchment Runoff Summary
  ***************************
  
  ------------------------------------------------------------------------------------------------------------------------------
                            Total      Total      Total      Total     Imperv       Perv      Total       Total     Peak  Runoff
                           Precip      Runon       Evap      Infil     Runoff     Runoff     Runoff      Runoff   Runoff   Coeff
  Subcatchment                 mm         mm         mm         mm         mm         mm         mm    10^6 ltr      CMS
  ------------------------------------------------------------------------------------------------------------------------------
  S1                         6.00       0.00       0.00       4.48       1.47       0.02       1.49       11.93     0.37   0.248
  S2                         6.00       0.00       0.00       4.49       1.46       0.01       1.47       10.31     0.29   0.246
  S3                         6.00       0.00       0.00       4.48       1.48       0.02       1.50        4.51     0.15   0.250
  
  
  ******************
  Node Depth Summary
  ******************
  
  ---------------------------------------------------------------------------------
                                 Average  Maximum  Maximum  Time of Max    Reported
                                   Depth    Depth      HGL   Occurrence   Max Depth
  Node                 Type       Meters   Meters   Meters  days hr:min      Meters
  ---------------------------------------------------------------------------------
  J1                   JUNCTION     0.08     0.24    11.04     0  06:00        0.24
  J2                   JUNCTION     0.12     0.33     6.33     0  06:00        0.33
  J3                   JUNCTION     0.16     0.44     2.44     0  06:01        0.44
  SU                   JUNCTION     0.28     1.43     1.43     0  06:15        1.43
  OF1                  OUTFALL      0.00     0.00     0.00     0  00:00        0.00
  
  
  *******************
  Node Inflow Summary
  *******************
  
  -------------------------------------------------------------------------------------------------
                                  Maximum  Maximum                  Lateral       Total        Flow
                                  Lateral    Total  Time of Max      Inflow      Inflow     Balance
                                   Inflow   Inflow   Occurrence      Volume      Volume       Error
  Node                 Type           CMS      CMS  days hr:min    10^6 ltr    10^6 ltr     Percent
  -------------------------------------------------------------------------------------------------
  J1                   JUNCTION     0.368    0.368     0  06:00        11.9        11.9       0.000
  J2                   JUNCTION     0.291    0.660     0  06:00        10.3        22.2       0.011
  J3                   JUNCTION     0.148    0.803     0  06:00        4.51        26.7       0.009
  SU                   JUNCTION     0.000    0.802     0  06:01           0        26.7       0.037
  OF1                  OUTFALL      0.000    0.781     0  06:15           0        26.7       0.000
  
  
  **********************
  Node Surcharge Summary
  **********************
  
  No nodes were surcharged.
  
  
  *********************
  Node Flooding Summary
  *********************
  
  No nodes were flooded.
  
  
  ***********************
  Outfall Loading Summary
  ***********************
  
  -----------------------------------------------------------
                         Flow       Avg       Max       Total
                         Freq      Flow      Flow      Volume
  Outfall Node           Pcnt       CMS       CMS    10^6 ltr
  -----------------------------------------------------------
  OF1                   99.57     0.156     0.781      26.726
  -----------------------------------------------------------
  System                99.57     0.156     0.781      26.726
  
  
  ********************
  Link Flow Summary
  ********************
  
  -----------------------------------------------------------------------------
                                 Maximum  Time of Max   Maximum    Max/    Max/
                                  |Flow|   Occurrence   |Veloc|    Full    Full
  Link                 Type          CMS  days hr:min     m/sec    Flow   Depth
  -----------------------------------------------------------------------------
  C1                   CONDUIT     0.368     0  06:00      2.05    0.12    0.28
  C2                   CONDUIT     0.659     0  06:00      1.85    0.10    0.26
  C3                   CONDUIT     0.802     0  06:01      0.90    0.11    0.46
  OR                   ORIFICE     0.781     0  06:15                      1.00
  
  
  ***************************
  Flow Classification Summary
  ***************************
  
  -------------------------------------------------------------------------------------
                      Adjusted    ---------- Fraction of Time in Flow Class ---------- 
                       /Actual         Up    Down  Sub   Sup   Up    Down  Norm  Inlet 
  Conduit               Length    Dry  Dry   Dry   Crit  Crit  Crit  Crit  Ltd   Ctrl  
  -------------------------------------------------------------------------------------
  C1                      1.00   0.00  0.00  0.00  0.32  0.68  0.00  0.00  0.99  0.00
  C2                      1.00   0.00  0.00  0.00  0.48  0.52  0.00  0.00  0.98  0.00
  C3                      1.00   0.00  0.00  0.00  0.99  0.01  0.00  0.00  0.63  0.00
  
  
  *************************
  Conduit Surcharge Summary
  *************************
  
  No conduits were surcharged.
  

  Analysis begun on:  Sun May 26 23:42:48 2024
  Analysis ended on:  Sun May 26 23:42:48 2024
  Total elapsed time: < 1 sec