
  EPA STORM WATER MANAGEMENT MODEL - VERSION 5.1 (Build 5.1.015)
  --------------------------------------------------------------

  
  *************
  Element Count
  *************
  Number of rain gages ...... 3
  Number of subcatchments ... 35
  Number of nodes ........... 34
  Number of links ........... 33
  Number of pollutants ...... 0
  Number of land uses ....... 0
  
  
  ****************
  Raingage Summary
  ****************
                                                      Data       Recording
  Name                 Data Source                    Type       Interval 
  ------------------------------------------------------------------------
  Hurricane_Hazel_(0-25) Hurricane_Hazel_(0-25)         INTENSITY   60 min.
  SCS_Type_I_10mm      SCS_Type_I_10mm                INTENSITY    6 min.
  SCS_Type_I_6mm       SCS_Type_I_6mm                 INTENSITY    6 min.
  
  
  ********************
  Subcatchment Summary
  ********************
  Name                       Area     Width   %Imperv    %Slope Rain Gage            Outlet              
  -----------------------------------------------------------------------------------------------------------
  S1                       277.00    498.21     25.00    0.5000 SCS_Type_I_6mm       J1_2                
  S10                       20.00    192.47     25.00    0.5000 SCS_Type_I_6mm       J2_7                
  S11                       38.23    500.00     25.00    0.5000 SCS_Type_I_6mm       J2_1                
  S12                       42.23    500.00     25.00    0.5000 SCS_Type_I_6mm       J2_2                
  S13                       37.01    500.00     25.00    0.5000 SCS_Type_I_6mm       J2_3                
  S14                       29.77    500.00     25.00    0.5000 SCS_Type_I_6mm       J2_8                
  S15                       36.51    500.00     25.00    0.5000 SCS_Type_I_6mm       J2_5                
  S16                       38.42    500.00     25.00    0.5000 SCS_Type_I_6mm       J2_5                
  S17                       53.62    500.00     25.00    0.5000 SCS_Type_I_6mm       J2_7                
  S18                       48.34    500.00     25.00    0.5000 SCS_Type_I_6mm       J2_9                
  S19                       30.00    324.40     25.00    0.5000 SCS_Type_I_6mm       J2_9                
  S2                       324.60    500.00     25.00    0.5000 SCS_Type_I_6mm       J1_1                
  S20                       46.43    500.00     25.00    0.5000 SCS_Type_I_6mm       J2_9                
  S21                       20.00    171.00     25.00    0.5000 SCS_Type_I_6mm       J2_10               
  S22                       40.00    295.17     25.00    0.5000 SCS_Type_I_6mm       J2_12               
  S23                       99.60    500.00     25.00    0.5000 SCS_Type_I_6mm       J2_14               
  S24                      138.32    500.00     25.00    0.5000 SCS_Type_I_6mm       J2_15               
  S25                       50.00    156.47     25.00    0.5000 SCS_Type_I_6mm       J2_13               
  S26                       30.00    158.05     25.00    0.5000 SCS_Type_I_6mm       J2_11               
  S27                       35.86    500.00     25.00    0.5000 SCS_Type_I_6mm       J2_16               
  S28                       15.00    198.96     25.00    0.5000 SCS_Type_I_6mm       J2_16               
  S29                       40.00    324.35     25.00    0.5000 SCS_Type_I_6mm       J2_10               
  S3                        82.66    500.00     25.00    0.5000 SCS_Type_I_6mm       J1_3                
  S30                      421.50    500.00     25.00    0.5000 SCS_Type_I_6mm       J1_1                
  S31                      137.72    500.00     25.00    0.5000 SCS_Type_I_6mm       J3_1                
  S32                       62.16    500.00     25.00    0.5000 SCS_Type_I_6mm       J3_3                
  S33                      112.61    500.00     25.00    0.5000 SCS_Type_I_6mm       J3_1                
  S34                       67.89    500.00     25.00    0.5000 SCS_Type_I_6mm       J3_2                
  S35                       79.72    500.00     25.00    0.5000 SCS_Type_I_6mm       J3_3                
  S4                       116.43    500.00     25.00    0.5000 SCS_Type_I_6mm       J1_2                
  S5                        46.70    500.00     25.00    0.5000 SCS_Type_I_6mm       J2_1                
  S6                        45.54    500.00     25.00    0.5000 SCS_Type_I_6mm       J2_2                
  S7                        20.00    193.88     25.00    0.5000 SCS_Type_I_6mm       J2_3                
  S8                        53.69    500.00     25.00    0.5000 SCS_Type_I_6mm       J2_4                
  S9                        69.21    500.00     25.00    0.5000 SCS_Type_I_6mm       J2_5                
  
  
  ************
  Node Summary
  ************
                                           Invert      Max.    Ponded    External
  Name                 Type                 Elev.     Depth      Area    Inflow  
  -------------------------------------------------------------------------------
  J1_1                 JUNCTION             10.48      1.00       0.0
  J1_2                 JUNCTION             10.32      1.00       0.0
  J1_3                 JUNCTION             10.16      1.00       0.0
  J2_1                 JUNCTION             11.92      1.00       0.0
  J2_10                JUNCTION             10.96      1.00       0.0
  J2_11                JUNCTION             11.12      1.00       0.0
  J2_12                JUNCTION             11.28      1.00       0.0
  J2_13                JUNCTION             11.44      1.00       0.0
  J2_14                JUNCTION             11.60      1.00       0.0
  J2_15                JUNCTION             10.80      1.50       0.0
  J2_16                JUNCTION             10.96      1.00       0.0
  J2_17                JUNCTION             10.40      1.50       0.0
  J2_2                 JUNCTION             11.76      1.00       0.0
  J2_3                 JUNCTION             11.60      1.00       0.0
  J2_4                 JUNCTION             11.44      1.00       0.0
  J2_5                 JUNCTION             11.60      1.00       0.0
  J2_6                 JUNCTION             11.76      1.00       0.0
  J2_7                 JUNCTION             11.92      1.00       0.0
  J2_8                 JUNCTION             11.28      1.00       0.0
  J2_9                 JUNCTION             11.12      1.00       0.0
  J3_1                 JUNCTION             10.32      1.00       0.0
  J3_2                 JUNCTION             10.32      1.00       0.0
  J3_3                 JUNCTION             10.16      1.00       0.0
  JI_1                 JUNCTION              4.80      1.50       0.0
  JI_2                 JUNCTION              3.20      1.50       0.0
  JI_3                 JUNCTION              1.60      1.50       0.0
  SU1                  JUNCTION             10.00      1.00       0.0
  SU2                  JUNCTION             10.00     50.00       0.0
  SU3                  JUNCTION             10.00     50.00       0.0
  WWTP                 JUNCTION              0.00     50.00       0.0
  OF_WWTP              OUTFALL               0.00      0.00       0.0
  OF1                  OUTFALL               0.00      0.00       0.0
  OF2                  OUTFALL               0.00      0.00       0.0
  OF3                  OUTFALL               0.00      0.00       0.0
  
  
  ************
  Link Summary
  ************
  Name             From Node        To Node          Type            Length    %Slope Roughness
  ---------------------------------------------------------------------------------------------
  C1_1             J1_1             J1_2             CONDUIT          200.0    0.0800    0.0130
  C1_2             J1_2             J1_3             CONDUIT          200.0    0.0800    0.0130
  C1_3             J1_3             SU1              CONDUIT          200.0    0.0800    0.0130
  C2_1             J2_1             J2_2             CONDUIT          200.0    0.0800    0.0130
  C2_10            J2_14            J2_13            CONDUIT          200.0    0.0800    0.0130
  C2_11            J2_13            J2_12            CONDUIT          200.0    0.0800    0.0130
  C2_12            J2_12            J2_11            CONDUIT          200.0    0.0800    0.0130
  C2_13            J2_11            J2_10            CONDUIT          200.0    0.0800    0.0130
  C2_14            J2_10            J2_15            CONDUIT          200.0    0.0800    0.0130
  C2_15            J2_16            J2_15            CONDUIT          200.0    0.0800    0.0130
  C2_16            J2_15            J2_17            CONDUIT          500.0    0.0800    0.0130
  C2_17            J2_17            SU2              CONDUIT          500.0    0.0800    0.0130
  C2_2             J2_2             J2_3             CONDUIT          200.0    0.0800    0.0130
  C2_3             J2_3             J2_4             CONDUIT          200.0    0.0800    0.0130
  C2_4             J2_5             J2_4             CONDUIT          200.0    0.0800    0.0130
  C2_5             J2_6             J2_5             CONDUIT          200.0    0.0800    0.0130
  C2_6             J2_7             J2_6             CONDUIT          200.0    0.0800    0.0130
  C2_7             J2_4             J2_8             CONDUIT          200.0    0.0800    0.0130
  C2_8             J2_8             J2_9             CONDUIT          200.0    0.0800    0.0130
  C2_9             J2_9             J2_10            CONDUIT          200.0    0.0800    0.0130
  C3_1             J3_3             SU3              CONDUIT          200.0    0.0800    0.0130
  C3_2             J3_2             J3_3             CONDUIT          200.0    0.0800    0.0130
  C3_3             J3_1             J3_3             CONDUIT          200.0    0.0800    0.0130
  CI_1             JI_1             JI_2             CONDUIT         2000.0    0.0800    0.0130
  CI_2             JI_2             JI_3             CONDUIT         2000.0    0.0800    0.0130
  CI_3             JI_3             WWTP             CONDUIT         2000.0    0.0800    0.0130
  CSO1             SU1              OF1              ORIFICE     
  CSO2             SU2              OF2              ORIFICE     
  CSO3             SU3              OF3              ORIFICE     
  OR_WWTP          WWTP             OF_WWTP          ORIFICE     
  OR1              SU1              JI_1             ORIFICE     
  OR2              SU2              JI_2             ORIFICE     
  OR3              SU3              JI_3             ORIFICE     
  
  
  *********************
  Cross Section Summary
  *********************
                                        Full     Full     Hyd.     Max.   No. of     Full
  Conduit          Shape               Depth     Area     Rad.    Width  Barrels     Flow
  ---------------------------------------------------------------------------------------
  C1_1             CIRCULAR             1.00     0.79     0.25     1.00        1     0.68
  C1_2             CIRCULAR             1.00     0.79     0.25     1.00        1     0.68
  C1_3             CIRCULAR             1.00     0.79     0.25     1.00        1     0.68
  C2_1             CIRCULAR             1.00     0.79     0.25     1.00        1     0.68
  C2_10            CIRCULAR             1.00     0.79     0.25     1.00        1     0.68
  C2_11            CIRCULAR             1.00     0.79     0.25     1.00        1     0.68
  C2_12            CIRCULAR             1.00     0.79     0.25     1.00        1     0.68
  C2_13            CIRCULAR             1.00     0.79     0.25     1.00        1     0.68
  C2_14            CIRCULAR             1.00     0.79     0.25     1.00        1     0.68
  C2_15            CIRCULAR             1.00     0.79     0.25     1.00        1     0.68
  C2_16            CIRCULAR             1.50     1.77     0.38     1.50        1     2.00
  C2_17            CIRCULAR             1.50     1.77     0.38     1.50        1     2.00
  C2_2             CIRCULAR             1.00     0.79     0.25     1.00        1     0.68
  C2_3             CIRCULAR             1.00     0.79     0.25     1.00        1     0.68
  C2_4             CIRCULAR             1.00     0.79     0.25     1.00        1     0.68
  C2_5             CIRCULAR             1.00     0.79     0.25     1.00        1     0.68
  C2_6             CIRCULAR             1.00     0.79     0.25     1.00        1     0.68
  C2_7             CIRCULAR             1.00     0.79     0.25     1.00        1     0.68
  C2_8             CIRCULAR             1.00     0.79     0.25     1.00        1     0.68
  C2_9             CIRCULAR             1.00     0.79     0.25     1.00        1     0.68
  C3_1             CIRCULAR             1.00     0.79     0.25     1.00        1     0.68
  C3_2             CIRCULAR             1.00     0.79     0.25     1.00        1     0.68
  C3_3             CIRCULAR             1.00     0.79     0.25     1.00        1     0.68
  CI_1             CIRCULAR             1.50     1.77     0.38     1.50        1     2.00
  CI_2             CIRCULAR             1.50     1.77     0.38     1.50        1     2.00
  CI_3             CIRCULAR             1.50     1.77     0.38     1.50        1     2.00
  
  
  
  *********************************************************
  NOTE: The summary statistics displayed in this report are
  based on results found at every computational time step,  
  not just on results from each reporting time step.
  *********************************************************
  
  ****************
  Analysis Options
  ****************
  Flow Units ............... CMS
  Process Models:
    Rainfall/Runoff ........ YES
    RDII ................... NO
    Snowmelt ............... NO
    Groundwater ............ NO
    Flow Routing ........... YES
    Ponding Allowed ........ NO
    Water Quality .......... NO
  Infiltration Method ...... HORTON
  Flow Routing Method ...... DYNWAVE
  Surcharge Method ......... EXTRAN
  Starting Date ............ 05/15/2023 00:00:00
  Ending Date .............. 05/16/2023 23:48:00
  Antecedent Dry Days ...... 0.0
  Report Time Step ......... 00:01:00
  Wet Time Step ............ 00:05:00
  Dry Time Step ............ 00:05:00
  Routing Time Step ........ 5.00 sec
  Variable Time Step ....... YES
  Maximum Trials ........... 8
  Number of Threads ........ 4
  Head Tolerance ........... 0.001500 m
  
  
  **************************        Volume         Depth
  Runoff Quantity Continuity     hectare-m            mm
  **************************     ---------       -------
  Total Precipitation ......        16.841         6.000
  Evaporation Loss .........         0.000         0.000
  Infiltration Loss ........        12.486         4.449
  Surface Runoff ...........         4.275         1.523
  Final Storage ............         0.080         0.028
  Continuity Error (%) .....        -0.000
  
  
  **************************        Volume        Volume
  Flow Routing Continuity        hectare-m      10^6 ltr
  **************************     ---------     ---------
  Dry Weather Inflow .......         0.000         0.000
  Wet Weather Inflow .......         4.275        42.754
  Groundwater Inflow .......         0.000         0.000
  RDII Inflow ..............         0.000         0.000
  External Inflow ..........         0.000         0.000
  External Outflow .........         4.253        42.527
  Flooding Loss ............         0.000         0.000
  Evaporation Loss .........         0.000         0.000
  Exfiltration Loss ........         0.000         0.000
  Initial Stored Volume ....         0.000         0.000
  Final Stored Volume ......         0.025         0.245
  Continuity Error (%) .....        -0.042
  
  
  ***************************
  Time-Step Critical Elements
  ***************************
  None
  
  
  ********************************
  Highest Flow Instability Indexes
  ********************************
  All links are stable.
  
  
  *************************
  Routing Time Step Summary
  *************************
  Minimum Time Step           :     4.50 sec
  Average Time Step           :     5.00 sec
  Maximum Time Step           :     5.00 sec
  Percent in Steady State     :     0.00
  Average Iterations per Step :     2.00
  Percent Not Converging      :     0.00
  Time Step Frequencies       :
      5.000 -  3.155 sec      :   100.00 %
      3.155 -  1.991 sec      :     0.00 %
      1.991 -  1.256 sec      :     0.00 %
      1.256 -  0.792 sec      :     0.00 %
      0.792 -  0.500 sec      :     0.00 %
  
  
  ***************************
  Subcatchment Runoff Summary
  ***************************
  
  ------------------------------------------------------------------------------------------------------------------------------
                            Total      Total      Total      Total     Imperv       Perv      Total       Total     Peak  Runoff
                           Precip      Runon       Evap      Infil     Runoff     Runoff     Runoff      Runoff   Runoff   Coeff
  Subcatchment                 mm         mm         mm         mm         mm         mm         mm    10^6 ltr      CMS
  ------------------------------------------------------------------------------------------------------------------------------
  S1                         6.00       0.00       0.00       4.48       1.46       0.02       1.48        4.10     0.15   0.247
  S10                        6.00       0.00       0.00       4.41       1.49       0.09       1.58        0.32     0.03   0.263
  S11                        6.00       0.00       0.00       4.38       1.49       0.12       1.61        0.61     0.06   0.268
  S12                        6.00       0.00       0.00       4.39       1.49       0.11       1.60        0.67     0.06   0.266
  S13                        6.00       0.00       0.00       4.38       1.49       0.12       1.61        0.60     0.06   0.268
  S14                        6.00       0.00       0.00       4.36       1.49       0.14       1.63        0.49     0.05   0.272
  S15                        6.00       0.00       0.00       4.38       1.49       0.12       1.61        0.59     0.06   0.269
  S16                        6.00       0.00       0.00       4.38       1.49       0.12       1.61        0.62     0.06   0.268
  S17                        6.00       0.00       0.00       4.41       1.49       0.09       1.58        0.84     0.07   0.263
  S18                        6.00       0.00       0.00       4.40       1.49       0.10       1.58        0.77     0.07   0.264
  S19                        6.00       0.00       0.00       4.40       1.49       0.10       1.59        0.48     0.04   0.265
  S2                         6.00       0.00       0.00       4.48       1.45       0.02       1.47        4.77     0.16   0.245
  S20                        6.00       0.00       0.00       4.40       1.49       0.10       1.59        0.74     0.06   0.265
  S21                        6.00       0.00       0.00       4.42       1.49       0.08       1.57        0.31     0.02   0.261
  S22                        6.00       0.00       0.00       4.43       1.49       0.07       1.56        0.62     0.05   0.260
  S23                        6.00       0.00       0.00       4.45       1.48       0.05       1.53        1.53     0.09   0.256
  S24                        6.00       0.00       0.00       4.46       1.48       0.04       1.52        2.10     0.11   0.253
  S25                        6.00       0.00       0.00       4.47       1.48       0.03       1.51        0.75     0.04   0.251
  S26                        6.00       0.00       0.00       4.45       1.48       0.05       1.54        0.46     0.03   0.256
  S27                        6.00       0.00       0.00       4.38       1.49       0.12       1.61        0.58     0.06   0.269
  S28                        6.00       0.00       0.00       4.38       1.49       0.12       1.61        0.24     0.02   0.268
  S29                        6.00       0.00       0.00       4.42       1.49       0.08       1.56        0.63     0.05   0.261
  S3                         6.00       0.00       0.00       4.44       1.48       0.06       1.54        1.28     0.09   0.257
  S30                        6.00       0.00       0.00       4.49       1.44       0.01       1.45        6.12     0.17   0.242
  S31                        6.00       0.00       0.00       4.46       1.48       0.04       1.52        2.09     0.11   0.253
  S32                        6.00       0.00       0.00       4.42       1.49       0.08       1.56        0.97     0.07   0.261
  S33                        6.00       0.00       0.00       4.46       1.48       0.04       1.53        1.72     0.10   0.254
  S34                        6.00       0.00       0.00       4.43       1.49       0.07       1.56        1.06     0.08   0.260
  S35                        6.00       0.00       0.00       4.44       1.48       0.06       1.55        1.23     0.08   0.258
  S4                         6.00       0.00       0.00       4.46       1.48       0.04       1.52        1.77     0.10   0.254
  S5                         6.00       0.00       0.00       4.40       1.49       0.10       1.59        0.74     0.06   0.265
  S6                         6.00       0.00       0.00       4.40       1.49       0.10       1.59        0.72     0.06   0.265
  S7                         6.00       0.00       0.00       4.41       1.49       0.09       1.58        0.32     0.03   0.263
  S8                         6.00       0.00       0.00       4.41       1.49       0.09       1.58        0.85     0.07   0.263
  S9                         6.00       0.00       0.00       4.43       1.49       0.07       1.56        1.08     0.08   0.259
  
  
  ******************
  Node Depth Summary
  ******************
  
  ---------------------------------------------------------------------------------
                                 Average  Maximum  Maximum  Time of Max    Reported
                                   Depth    Depth      HGL   Occurrence   Max Depth
  Node                 Type       Meters   Meters   Meters  days hr:min      Meters
  ---------------------------------------------------------------------------------
  J1_1                 JUNCTION     0.18     0.73    11.21     0  10:30        0.73
  J1_2                 JUNCTION     0.22     0.85    11.17     0  10:30        0.85
  J1_3                 JUNCTION     0.24     0.91    11.07     0  10:30        0.91
  J2_1                 JUNCTION     0.06     0.32    12.24     0  10:18        0.32
  J2_10                JUNCTION     0.18     0.87    11.83     0  10:29        0.87
  J2_11                JUNCTION     0.11     0.72    11.84     0  10:29        0.72
  J2_12                JUNCTION     0.09     0.57    11.85     0  10:30        0.57
  J2_13                JUNCTION     0.08     0.43    11.87     0  10:30        0.43
  J2_14                JUNCTION     0.06     0.29    11.89     0  10:30        0.29
  J2_15                JUNCTION     0.17     0.75    11.55     0  10:28        0.75
  J2_16                JUNCTION     0.08     0.59    11.55     0  10:30        0.59
  J2_17                JUNCTION     0.19     0.78    11.18     0  10:44        0.78
  J2_2                 JUNCTION     0.08     0.45    12.21     0  10:21        0.45
  J2_3                 JUNCTION     0.09     0.58    12.18     0  10:23        0.58
  J2_4                 JUNCTION     0.13     0.71    12.15     0  10:24        0.71
  J2_5                 JUNCTION     0.09     0.58    12.18     0  10:23        0.58
  J2_6                 JUNCTION     0.06     0.42    12.18     0  10:24        0.42
  J2_7                 JUNCTION     0.05     0.28    12.20     0  10:22        0.28
  J2_8                 JUNCTION     0.14     0.77    12.05     0  10:25        0.77
  J2_9                 JUNCTION     0.15     0.84    11.96     0  10:26        0.84
  J3_1                 JUNCTION     0.10     0.49    10.81     0  10:19        0.49
  J3_2                 JUNCTION     0.06     0.46    10.78     0  10:20        0.46
  J3_3                 JUNCTION     0.14     0.62    10.78     0  10:20        0.62
  JI_1                 JUNCTION     0.18     0.45     5.25     0  10:52        0.45
  JI_2                 JUNCTION     0.25     0.82     4.02     0  11:18        0.82
  JI_3                 JUNCTION     0.31     0.93     2.53     0  11:32        0.93
  SU1                  JUNCTION     0.22     0.95    10.95     0  10:30        0.95
  SU2                  JUNCTION     0.15     0.97    10.97     0  10:46        0.97
  SU3                  JUNCTION     0.11     0.69    10.69     0  10:21        0.69
  WWTP                 JUNCTION     0.26     1.25     1.25     0  12:02        1.25
  OF_WWTP              OUTFALL      0.00     0.00     0.00     0  00:00        0.00
  OF1                  OUTFALL      0.00     0.00     0.00     0  00:00        0.00
  OF2                  OUTFALL      0.00     0.00     0.00     0  00:00        0.00
  OF3                  OUTFALL      0.00     0.00     0.00     0  00:00        0.00
  
  
  *******************
  Node Inflow Summary
  *******************
  
  -------------------------------------------------------------------------------------------------
                                  Maximum  Maximum                  Lateral       Total        Flow
                                  Lateral    Total  Time of Max      Inflow      Inflow     Balance
                                   Inflow   Inflow   Occurrence      Volume      Volume       Error
  Node                 Type           CMS      CMS  days hr:min    10^6 ltr    10^6 ltr     Percent
  -------------------------------------------------------------------------------------------------
  J1_1                 JUNCTION     0.332    0.332     0  10:24        10.9        10.9       0.017
  J1_2                 JUNCTION     0.243    0.567     0  10:24        5.87        16.8       0.023
  J1_3                 JUNCTION     0.085    0.634     0  10:25        1.28          18       0.032
  J2_1                 JUNCTION     0.121    0.121     0  10:00        1.36        1.36      -0.019
  J2_10                JUNCTION     0.072    0.858     0  10:26        0.94        14.7       0.006
  J2_11                JUNCTION     0.029    0.173     0  10:38       0.461        3.36       0.023
  J2_12                JUNCTION     0.046    0.156     0  10:02       0.623         2.9       0.017
  J2_13                JUNCTION     0.036    0.127     0  10:05       0.754        2.28       0.024
  J2_14                JUNCTION     0.093    0.093     0  10:00        1.53        1.53      -0.020
  J2_15                JUNCTION     0.108    1.004     0  10:26         2.1        17.6      -0.002
  J2_16                JUNCTION     0.078    0.078     0  10:00        0.82        0.82      -0.058
  J2_17                JUNCTION     0.000    1.004     0  10:30           0        17.6       0.042
  J2_2                 JUNCTION     0.124    0.234     0  10:01         1.4        2.75      -0.000
  J2_3                 JUNCTION     0.082    0.290     0  10:03       0.912        3.67       0.006
  J2_4                 JUNCTION     0.069    0.526     0  10:08       0.846        7.96       0.010
  J2_5                 JUNCTION     0.191    0.239     0  10:00        2.28        3.44      -0.005
  J2_6                 JUNCTION     0.000    0.092     0  10:02           0        1.16       0.071
  J2_7                 JUNCTION     0.095    0.095     0  10:00        1.16        1.16      -0.055
  J2_8                 JUNCTION     0.050    0.536     0  10:15       0.487        8.44       0.007
  J2_9                 JUNCTION     0.170    0.662     0  10:14        1.98        10.4       0.002
  J3_1                 JUNCTION     0.206    0.206     0  10:00        3.81        3.81       0.007
  J3_2                 JUNCTION     0.077    0.077     0  10:00        1.06        1.06      -0.017
  J3_3                 JUNCTION     0.158    0.406     0  10:07        2.21        7.07       0.031
  JI_1                 JUNCTION     0.000    0.400     0  10:30           0          16       0.108
  JI_2                 JUNCTION     0.000    1.241     0  10:48           0        33.3       0.167
  JI_3                 JUNCTION     0.000    1.440     0  11:12           0        40.1       0.258
  SU1                  JUNCTION     0.000    0.632     0  10:29           0          18       0.008
  SU2                  JUNCTION     0.000    0.973     0  10:40           0        17.6       0.014
  SU3                  JUNCTION     0.000    0.393     0  10:19           0        7.07       0.005
  WWTP                 JUNCTION     0.000    1.403     0  11:32           0          40       0.057
  OF_WWTP              OUTFALL      0.000    1.339     0  12:02           0          40       0.000
  OF1                  OUTFALL      0.000    0.232     0  10:30           0        1.99       0.000
  OF2                  OUTFALL      0.000    0.117     0  10:46           0       0.378       0.000
  OF3                  OUTFALL      0.000    0.069     0  10:21           0       0.194       0.000
  
  
  **********************
  Node Surcharge Summary
  **********************
  
  No nodes were surcharged.
  
  
  *********************
  Node Flooding Summary
  *********************
  
  No nodes were flooded.
  
  
  ***********************
  Outfall Loading Summary
  ***********************
  
  -----------------------------------------------------------
                         Flow       Avg       Max       Total
                         Freq      Flow      Flow      Volume
  Outfall Node           Pcnt       CMS       CMS    10^6 ltr
  -----------------------------------------------------------
  OF_WWTP               97.05     0.239     1.339      39.965
  OF1                   12.02     0.096     0.232       1.989
  OF2                    3.32     0.066     0.117       0.378
  OF3                    3.15     0.036     0.069       0.194
  -----------------------------------------------------------
  System                28.89     0.438     1.469      42.526
  
  
  ********************
  Link Flow Summary
  ********************
  
  -----------------------------------------------------------------------------
                                 Maximum  Time of Max   Maximum    Max/    Max/
                                  |Flow|   Occurrence   |Veloc|    Full    Full
  Link                 Type          CMS  days hr:min     m/sec    Flow   Depth
  -----------------------------------------------------------------------------
  C1_1                 CONDUIT     0.332     0  10:32      0.60    0.49    0.79
  C1_2                 CONDUIT     0.564     0  10:30      0.85    0.83    0.88
  C1_3                 CONDUIT     0.632     0  10:29      0.83    0.93    0.93
  C2_1                 CONDUIT     0.113     0  10:02      0.49    0.17    0.38
  C2_10                CONDUIT     0.092     0  10:04      0.56    0.13    0.36
  C2_11                CONDUIT     0.113     0  10:36      0.53    0.17    0.50
  C2_12                CONDUIT     0.151     0  10:40      0.39    0.22    0.65
  C2_13                CONDUIT     0.180     0  10:43      0.29    0.27    0.80
  C2_14                CONDUIT     0.857     0  10:29      1.25    1.26    0.81
  C2_15                CONDUIT     0.055     0  10:01      0.16    0.08    0.67
  C2_16                CONDUIT     1.004     0  10:30      1.15    0.50    0.51
  C2_17                CONDUIT     0.973     0  10:40      1.04    0.49    0.58
  C2_2                 CONDUIT     0.212     0  10:03      0.64    0.31    0.52
  C2_3                 CONDUIT     0.258     0  10:06      0.58    0.38    0.65
  C2_4                 CONDUIT     0.213     0  10:19      0.50    0.31    0.64
  C2_5                 CONDUIT     0.073     0  10:35      0.26    0.11    0.50
  C2_6                 CONDUIT     0.092     0  10:02      0.59    0.14    0.35
  C2_7                 CONDUIT     0.500     0  10:17      0.87    0.74    0.74
  C2_8                 CONDUIT     0.527     0  10:21      0.80    0.78    0.81
  C2_9                 CONDUIT     0.650     0  10:19      0.95    0.96    0.86
  C3_1                 CONDUIT     0.393     0  10:19      0.81    0.58    0.66
  C3_2                 CONDUIT     0.065     0  10:14      0.18    0.10    0.54
  C3_3                 CONDUIT     0.196     0  10:12      0.55    0.29    0.55
  CI_1                 CONDUIT     0.391     0  10:52      0.67    0.20    0.42
  CI_2                 CONDUIT     1.171     0  11:19      1.10    0.59    0.58
  CI_3                 CONDUIT     1.403     0  11:32      1.21    0.70    0.72
  CSO1                 ORIFICE     0.232     0  10:30                      1.00
  CSO2                 ORIFICE     0.117     0  10:46                      0.68
  CSO3                 ORIFICE     0.069     0  10:21                      0.48
  OR_WWTP              ORIFICE     1.339     0  12:02                      1.00
  OR1                  ORIFICE     0.400     0  10:30                      1.00
  OR2                  ORIFICE     0.851     0  10:46                      1.00
  OR3                  ORIFICE     0.324     0  10:21                      1.00
  
  
  ***************************
  Flow Classification Summary
  ***************************
  
  -------------------------------------------------------------------------------------
                      Adjusted    ---------- Fraction of Time in Flow Class ---------- 
                       /Actual         Up    Down  Sub   Sup   Up    Down  Norm  Inlet 
  Conduit               Length    Dry  Dry   Dry   Crit  Crit  Crit  Crit  Ltd   Ctrl  
  -------------------------------------------------------------------------------------
  C1_1                    1.00   0.00  0.00  0.00  1.00  0.00  0.00  0.00  0.81  0.00
  C1_2                    1.00   0.00  0.00  0.00  1.00  0.00  0.00  0.00  0.81  0.00
  C1_3                    1.00   0.00  0.00  0.00  1.00  0.00  0.00  0.00  0.07  0.00
  C2_1                    1.00   0.00  0.00  0.00  1.00  0.00  0.00  0.00  0.97  0.00
  C2_10                   1.00   0.00  0.00  0.00  1.00  0.00  0.00  0.00  0.94  0.00
  C2_11                   1.00   0.00  0.00  0.00  1.00  0.00  0.00  0.00  0.96  0.00
  C2_12                   1.00   0.00  0.00  0.00  1.00  0.00  0.00  0.00  0.88  0.00
  C2_13                   1.00   0.00  0.00  0.00  1.00  0.00  0.00  0.00  0.76  0.00
  C2_14                   1.00   0.00  0.00  0.00  1.00  0.00  0.00  0.00  0.48  0.00
  C2_15                   1.00   0.00  0.00  0.00  1.00  0.00  0.00  0.00  0.59  0.00
  C2_16                   1.00   0.00  0.00  0.00  1.00  0.00  0.00  0.00  0.92  0.00
  C2_17                   1.00   0.00  0.00  0.00  1.00  0.00  0.00  0.00  0.05  0.00
  C2_2                    1.00   0.00  0.00  0.00  1.00  0.00  0.00  0.00  0.93  0.00
  C2_3                    1.00   0.00  0.00  0.00  1.00  0.00  0.00  0.00  0.90  0.00
  C2_4                    1.00   0.00  0.00  0.00  1.00  0.00  0.00  0.00  0.90  0.00
  C2_5                    1.00   0.00  0.00  0.00  1.00  0.00  0.00  0.00  0.95  0.00
  C2_6                    1.00   0.00  0.00  0.00  1.00  0.00  0.00  0.00  0.77  0.00
  C2_7                    1.00   0.00  0.00  0.00  1.00  0.00  0.00  0.00  0.89  0.00
  C2_8                    1.00   0.00  0.00  0.00  1.00  0.00  0.00  0.00  0.92  0.00
  C2_9                    1.00   0.00  0.00  0.00  1.00  0.00  0.00  0.00  0.84  0.00
  C3_1                    1.00   0.00  0.00  0.00  1.00  0.00  0.00  0.00  0.02  0.00
  C3_2                    1.00   0.00  0.00  0.00  1.00  0.00  0.00  0.00  0.87  0.00
  C3_3                    1.00   0.00  0.00  0.00  1.00  0.00  0.00  0.00  0.94  0.00
  CI_1                    1.00   0.00  0.00  0.00  1.00  0.00  0.00  0.00  0.92  0.00
  CI_2                    1.00   0.00  0.00  0.00  1.00  0.00  0.00  0.00  0.98  0.00
  CI_3                    1.00   0.00  0.00  0.00  1.00  0.00  0.00  0.00  0.12  0.00
  
  
  *************************
  Conduit Surcharge Summary
  *************************
  
  ----------------------------------------------------------------------------
                                                           Hours        Hours 
                         --------- Hours Full --------   Above Full   Capacity
  Conduit                Both Ends  Upstream  Dnstream   Normal Flow   Limited
  ----------------------------------------------------------------------------
  C2_14                       0.01      0.01      0.01      1.09         0.01
  

  Analysis begun on:  Fri Jul 19 14:43:34 2024
  Analysis ended on:  Fri Jul 19 14:43:35 2024
  Total elapsed time: 00:00:01